Version 4
SHEET 1 880 680
WIRE -128 48 -160 48
WIRE -16 48 -128 48
WIRE 240 48 64 48
WIRE 704 48 608 48
WIRE 768 48 704 48
WIRE -160 112 -160 48
WIRE 768 128 768 48
WIRE 240 144 240 48
WIRE 368 144 240 144
WIRE 608 144 608 48
WIRE 608 144 464 144
WIRE 368 176 240 176
WIRE 608 176 464 176
WIRE -160 272 -160 192
WIRE 160 272 -160 272
WIRE 240 272 240 176
WIRE 240 272 160 272
WIRE 608 288 608 176
WIRE 768 288 768 208
WIRE 768 288 608 288
FLAG 160 272 0
FLAG -128 48 V1
FLAG 704 48 VL
SYMBOL voltage -160 96 R0
WINDOW 123 0 0 Left 0
WINDOW 39 0 0 Left 0
SYMATTR InstName V1
SYMATTR Value PULSE(0 3.3 0 0.1ns 0.1ns 1s)
SYMBOL tline 416 160 R0
SYMATTR InstName T1
SYMATTR Value Td=1n Z0=50
SYMBOL res 80 32 R90
WINDOW 0 0 56 VBottom 2
WINDOW 3 32 56 VTop 2
SYMATTR InstName R2
SYMATTR Value 5
SYMBOL res 752 112 R0
SYMATTR InstName R1
SYMATTR Value 100
TEXT 336 416 Left 2 ;.step param R1 list 100
TEXT -18 436 Left 2 !.tran 50n
